
1,   'GENROU',1 ,4.8, 0.035,1.5, 0.07,3.2,0.0,1.8,1.75,0.3,0.47,0.23,0.15,0.1, 0.4 /
4,   'GENROU',1 ,4.8, 0.035,1.5, 0.07,3.2,0.0,1.8,1.75,0.3,0.47,0.23,0.15,0.1, 0.4 /
6,   'GENROU',1 ,4.8, 0.035,1.5, 0.07,3.2,0.0,1.8,1.75,0.3,0.47,0.23,0.15,0.1, 0.4 /
8,   'GENROU',1 ,4.8, 0.035,1.5, 0.07,3.2,0.0,1.8,1.75,0.3,0.47,0.23,0.15,0.1, 0.4 /
10,  'GENROU',1 ,4.8, 0.035,1.5, 0.07,3.2,0.0,1.8,1.75,0.3,0.47,0.23,0.15,0.1, 0.4 /
12,  'GENROU',1 ,4.8, 0.035,1.5, 0.07,3.2,0.0,1.8,1.75,0.3,0.47,0.23,0.15,0.1, 0.4 /
15,  'GENROU',1 ,4.8, 0.035,1.5, 0.07,3.2,0.0,1.8,1.75,0.3,0.47,0.23,0.15,0.1, 0.4 /
18,  'GENROU',1 ,4.8, 0.035,1.5, 0.07,3.2,0.0,1.8,1.75,0.3,0.47,0.23,0.15,0.1, 0.4 /
19,  'GENROU',1 ,4.8, 0.035,1.5, 0.07,3.2,0.0,1.8,1.75,0.3,0.47,0.23,0.15,0.1, 0.4 /
24,  'GENROU',1 ,4.8, 0.035,1.5, 0.07,3.2,0.0,1.8,1.75,0.3,0.47,0.23,0.15,0.1, 0.4 /
25,  'GENROU',1 ,4.8, 0.035,1.5, 0.07,3.2,0.0,1.8,1.75,0.3,0.47,0.23,0.15,0.1, 0.4 /
26,  'GENROU',1 ,4.8, 0.035,1.5, 0.07,3.2,0.0,1.8,1.75,0.3,0.47,0.23,0.15,0.1, 0.4 /
27,  'GENROU',1 ,4.8, 0.035,1.5, 0.07,3.2,0.0,1.8,1.75,0.3,0.47,0.23,0.15,0.1, 0.4 /
31,  'GENROU',1 ,4.8, 0.035,1.5, 0.07,3.2,0.0,1.8,1.75,0.3,0.47,0.23,0.15,0.1, 0.4 /
32,  'GENROU',1 ,4.8, 0.035,1.5, 0.07,3.2,0.0,1.8,1.75,0.3,0.47,0.23,0.15,0.1, 0.4 /
34,  'GENROU',1 ,4.8, 0.035,1.5, 0.07,3.2,0.0,1.8,1.75,0.3,0.47,0.23,0.15,0.1, 0.4 /
36,  'GENROU',1 ,4.8, 0.035,1.5, 0.07,3.2,0.0,1.8,1.75,0.3,0.47,0.23,0.15,0.1, 0.4 /
40,  'GENROU',1 ,4.8, 0.035,1.5, 0.07,3.2,0.0,1.8,1.75,0.3,0.47,0.23,0.15,0.1, 0.4 /
42,  'GENROU',1 ,4.8, 0.035,1.5, 0.07,3.2,0.0,1.8,1.75,0.3,0.47,0.23,0.15,0.1, 0.4 /
46,  'GENROU',1 ,4.8, 0.035,1.5, 0.07,3.2,0.0,1.8,1.75,0.3,0.47,0.23,0.15,0.1, 0.4 /
49,  'GENROU',1 ,4.8, 0.035,1.5, 0.07,3.2,0.0,1.8,1.75,0.3,0.47,0.23,0.15,0.1, 0.4 /
54,  'GENROU',1 ,4.8, 0.035,1.5, 0.07,3.2,0.0,1.8,1.75,0.3,0.47,0.23,0.15,0.1, 0.4 /
55,  'GENROU',1 ,4.8, 0.035,1.5, 0.07,3.2,0.0,1.8,1.75,0.3,0.47,0.23,0.15,0.1, 0.4 /
56,  'GENROU',1 ,4.8, 0.035,1.5, 0.07,3.2,0.0,1.8,1.75,0.3,0.47,0.23,0.15,0.1, 0.4 /
59,  'GENROU',1 ,4.8, 0.035,1.5, 0.07,3.2,0.0,1.8,1.75,0.3,0.47,0.23,0.15,0.1, 0.4 /
61,  'GENROU',1 ,4.8, 0.035,1.5, 0.07,3.2,0.0,1.8,1.75,0.3,0.47,0.23,0.15,0.1, 0.4 /
62,  'GENROU',1 ,4.8, 0.035,1.5, 0.07,3.2,0.0,1.8,1.75,0.3,0.47,0.23,0.15,0.1, 0.4 /
65,  'GENROU',1 ,4.8, 0.035,1.5, 0.07,3.2,0.0,1.8,1.75,0.3,0.47,0.23,0.15,0.1, 0.4 /
66,  'GENROU',1 ,4.8, 0.035,1.5, 0.07,3.2,0.0,1.8,1.75,0.3,0.47,0.23,0.15,0.1, 0.4 /
69,  'GENROU',1 ,4.8, 0.035,1.5, 0.07,3.2,0.0,1.8,1.75,0.3,0.47,0.23,0.15,0.1, 0.4 /
70,  'GENROU',1 ,4.8, 0.035,1.5, 0.07,3.2,0.0,1.8,1.75,0.3,0.47,0.23,0.15,0.1, 0.4 /
72,  'GENROU',1 ,4.8, 0.035,1.5, 0.07,3.2,0.0,1.8,1.75,0.3,0.47,0.23,0.15,0.1, 0.4 /
73,  'GENROU',1 ,4.8, 0.035,1.5, 0.07,3.2,0.0,1.8,1.75,0.3,0.47,0.23,0.15,0.1, 0.4 /
74,  'GENROU',1 ,4.8, 0.035,1.5, 0.07,3.2,0.0,1.8,1.75,0.3,0.47,0.23,0.15,0.1, 0.4 /
76,  'GENROU',1 ,4.8, 0.035,1.5, 0.07,3.2,0.0,1.8,1.75,0.3,0.47,0.23,0.15,0.1, 0.4 /
77,  'GENROU',1 ,4.8, 0.035,1.5, 0.07,3.2,0.0,1.8,1.75,0.3,0.47,0.23,0.15,0.1, 0.4 /
80,  'GENROU',1 ,4.8, 0.035,1.5, 0.07,3.2,0.0,1.8,1.75,0.3,0.47,0.23,0.15,0.1, 0.4 /
85,  'GENROU',1 ,4.8, 0.035,1.5, 0.07,3.2,0.0,1.8,1.75,0.3,0.47,0.23,0.15,0.1, 0.4 /
87,  'GENROU',1 ,4.8, 0.035,1.5, 0.07,3.2,0.0,1.8,1.75,0.3,0.47,0.23,0.15,0.1, 0.4 /
89,  'GENROU',1 ,4.8, 0.035,1.5, 0.07,3.2,0.0,1.8,1.75,0.3,0.47,0.23,0.15,0.1, 0.4 /
90,  'GENROU',1 ,4.8, 0.035,1.5, 0.07,3.2,0.0,1.8,1.75,0.3,0.47,0.23,0.15,0.1, 0.4 /
91,  'GENROU',1 ,4.8, 0.035,1.5, 0.07,3.2,0.0,1.8,1.75,0.3,0.47,0.23,0.15,0.1, 0.4 /
92,  'GENROU',1 ,4.8, 0.035,1.5, 0.07,3.2,0.0,1.8,1.75,0.3,0.47,0.23,0.15,0.1, 0.4 /
99,  'GENROU',1 ,4.8, 0.035,1.5, 0.07,3.2,0.0,1.8,1.75,0.3,0.47,0.23,0.15,0.1, 0.4 /
100, 'GENROU',1 ,4.8, 0.035,1.5, 0.07,3.2,0.0,1.8,1.75,0.3,0.47,0.23,0.15,0.1, 0.4 /
103, 'GENROU',1 ,4.8, 0.035,1.5, 0.07,3.2,0.0,1.8,1.75,0.3,0.47,0.23,0.15,0.1, 0.4 /
104, 'GENROU',1 ,4.8, 0.035,1.5, 0.07,3.2,0.0,1.8,1.75,0.3,0.47,0.23,0.15,0.1, 0.4 /
105, 'GENROU',1 ,4.8, 0.035,1.5, 0.07,3.2,0.0,1.8,1.75,0.3,0.47,0.23,0.15,0.1, 0.4 /
107, 'GENROU',1 ,4.8, 0.035,1.5, 0.07,3.2,0.0,1.8,1.75,0.3,0.47,0.23,0.15,0.1, 0.4 /
110, 'GENROU',1 ,4.8, 0.035,1.5, 0.07,3.2,0.0,1.8,1.75,0.3,0.47,0.23,0.15,0.1, 0.4 /
111, 'GENROU',1 ,4.8, 0.035,1.5, 0.07,3.2,0.0,1.8,1.75,0.3,0.47,0.23,0.15,0.1, 0.4 /
112, 'GENROU',1 ,4.8, 0.035,1.5, 0.07,3.2,0.0,1.8,1.75,0.3,0.47,0.23,0.15,0.1, 0.4 /
113, 'GENROU',1 ,4.8, 0.035,1.5, 0.07,3.2,0.0,1.8,1.75,0.3,0.47,0.23,0.15,0.1, 0.4 /
116, 'GENROU',1 ,4.8, 0.035,1.5, 0.07,3.2,0.0,1.8,1.75,0.3,0.47,0.23,0.15,0.1, 0.4 /

      1 'IEEET1' 1    0.06	20	0.01	5.0	-6.0	1.0	0.67	0.1	1.0	0.0	3.0    0.09	4.0	0.368    /
      4 'IEEET1' 1    0.06	20	0.01	5.0	-6.0	1.0	0.67	0.1	1.0	0.0	3.0    0.09	4.0	0.368    /
      6 'IEEET1' 1    0.06	20	0.01	5.0	-6.0	1.0	0.67	0.1	1.0	0.0	3.0    0.09	4.0	0.368    /
      8 'IEEET1' 1    0.06	20	0.01	5.0	-6.0	1.0	0.67	0.1	1.0	0.0	3.0    0.09	4.0	0.368    /
     10 'IEEET1' 1    0.06	20	0.01	5.0	-6.0	1.0	0.67	0.1	1.0	0.0	3.0    0.09	4.0	0.368    /
     12 'IEEET1' 1    0.06	20	0.01	5.0	-6.0	1.0	0.67	0.1	1.0	0.0	3.0    0.09	4.0	0.368    /
     15 'IEEET1' 1    0.06	20	0.01	5.0	-6.0	1.0	0.67	0.1	1.0	0.0	3.0    0.09	4.0	0.368    /
     18 'IEEET1' 1    0.06	20	0.01	5.0	-6.0	1.0	0.67	0.1	1.0	0.0	3.0    0.09	4.0	0.368    /
     19 'IEEET1' 1    0.06	20	0.01	5.0	-6.0	1.0	0.67	0.1	1.0	0.0	3.0    0.09	4.0	0.368    /
     24 'IEEET1' 1    0.06	20	0.01	5.0	-6.0	1.0	0.67	0.1	1.0	0.0	3.0    0.09	4.0	0.368    /
     25 'IEEET1' 1    0.06	20	0.01	5.0	-6.0	1.0	0.67	0.1	1.0	0.0	3.0    0.09	4.0	0.368    /
     26 'IEEET1' 1    0.06	20	0.01	5.0	-6.0	1.0	0.67	0.1	1.0	0.0	3.0    0.09	4.0	0.368    /
     27 'IEEET1' 1    0.06	20	0.01	5.0	-6.0	1.0	0.67	0.1	1.0	0.0	3.0    0.09	4.0	0.368    /
     31 'IEEET1' 1    0.06	20	0.01	5.0	-6.0	1.0	0.67	0.1	1.0	0.0	3.0    0.09	4.0	0.368    /
     32 'IEEET1' 1    0.06	20	0.01	5.0	-6.0	1.0	0.67	0.1	1.0	0.0	3.0    0.09	4.0	0.368    /
     34 'IEEET1' 1    0.06	20	0.01	5.0	-6.0	1.0	0.67	0.1	1.0	0.0	3.0    0.09	4.0	0.368    /
     36 'IEEET1' 1    0.06	20	0.01	5.0	-6.0	1.0	0.67	0.1	1.0	0.0	3.0    0.09	4.0	0.368    /
     40 'IEEET1' 1    0.06	20	0.01	5.0	-6.0	1.0	0.67	0.1	1.0	0.0	3.0    0.09	4.0	0.368    /
     42 'IEEET1' 1    0.06	20	0.01	5.0	-6.0	1.0	0.67	0.1	1.0	0.0	3.0    0.09	4.0	0.368    /
     46 'IEEET1' 1    0.06	20	0.01	5.0	-6.0	1.0	0.67	0.1	1.0	0.0	3.0    0.09	4.0	0.368    /
     49 'IEEET1' 1    0.06	20	0.01	5.0	-6.0	1.0	0.67	0.1	1.0	0.0	3.0    0.09	4.0	0.368    /
     54 'IEEET1' 1    0.06	20	0.01	5.0	-6.0	1.0	0.67	0.1	1.0	0.0	3.0    0.09	4.0	0.368    /
     55 'IEEET1' 1    0.06	20	0.01	5.0	-6.0	1.0	0.67	0.1	1.0	0.0	3.0    0.09	4.0	0.368    /
     56 'IEEET1' 1    0.06	20	0.01	5.0	-6.0	1.0	0.67	0.1	1.0	0.0	3.0    0.09	4.0	0.368    /
     59 'IEEET1' 1    0.06	20	0.01	5.0	-6.0	1.0	0.67	0.1	1.0	0.0	3.0    0.09	4.0	0.368    /
     61 'IEEET1' 1    0.06	20	0.01	5.0	-6.0	1.0	0.67	0.1	1.0	0.0	3.0    0.09	4.0	0.368    /
     62 'IEEET1' 1    0.06	20	0.01	5.0	-6.0	1.0	0.67	0.1	1.0	0.0	3.0    0.09	4.0	0.368    /
     65 'IEEET1' 1    0.06	20	0.01	5.0	-6.0	1.0	0.67	0.1	1.0	0.0	3.0    0.09	4.0	0.368    /
     66 'IEEET1' 1    0.06	20	0.01	5.0	-6.0	1.0	0.67	0.1	1.0	0.0	3.0    0.09	4.0	0.368    /
     69 'IEEET1' 1    0.06	20	0.01	5.0	-6.0	1.0	0.67	0.1	1.0	0.0	3.0    0.09	4.0	0.368    /
     70 'IEEET1' 1    0.06	20	0.01	5.0	-6.0	1.0	0.67	0.1	1.0	0.0	3.0    0.09	4.0	0.368    /
     72 'IEEET1' 1    0.06	20	0.01	5.0	-6.0	1.0	0.67	0.1	1.0	0.0	3.0    0.09	4.0	0.368    /
     73 'IEEET1' 1    0.06	20	0.01	5.0	-6.0	1.0	0.67	0.1	1.0	0.0	3.0    0.09	4.0	0.368    /
     74 'IEEET1' 1    0.06	20	0.01	5.0	-6.0	1.0	0.67	0.1	1.0	0.0	3.0    0.09	4.0	0.368    /
     76 'IEEET1' 1    0.06	20	0.01	5.0	-6.0	1.0	0.67	0.1	1.0	0.0	3.0    0.09	4.0	0.368    /
     77 'IEEET1' 1    0.06	20	0.01	5.0	-6.0	1.0	0.67	0.1	1.0	0.0	3.0    0.09	4.0	0.368    /
     80 'IEEET1' 1    0.06	20	0.01	5.0	-6.0	1.0	0.67	0.1	1.0	0.0	3.0    0.09	4.0	0.368    /
     85 'IEEET1' 1    0.06	20	0.01	5.0	-6.0	1.0	0.67	0.1	1.0	0.0	3.0    0.09	4.0	0.368    /
     87 'IEEET1' 1    0.06	20	0.01	5.0	-6.0	1.0	0.67	0.1	1.0	0.0	3.0    0.09	4.0	0.368    /
     89 'IEEET1' 1    0.06	20	0.01	5.0	-6.0	1.0	0.67	0.1	1.0	0.0	3.0    0.09	4.0	0.368    /
     90 'IEEET1' 1    0.06	20	0.01	5.0	-6.0	1.0	0.67	0.1	1.0	0.0	3.0    0.09	4.0	0.368    /
     91 'IEEET1' 1    0.06	20	0.01	5.0	-6.0	1.0	0.67	0.1	1.0	0.0	3.0    0.09	4.0	0.368    /
     92 'IEEET1' 1    0.06	20	0.01	5.0	-6.0	1.0	0.67	0.1	1.0	0.0	3.0    0.09	4.0	0.368    /
     99 'IEEET1' 1    0.06	20	0.01	5.0	-6.0	1.0	0.67	0.1	1.0	0.0	3.0    0.09	4.0	0.368    /
    100 'IEEET1' 1    0.06	20	0.01	5.0	-6.0	1.0	0.67	0.1	1.0	0.0	3.0    0.09	4.0	0.368    /
    103 'IEEET1' 1    0.06	20	0.01	5.0	-6.0	1.0	0.67	0.1	1.0	0.0	3.0    0.09	4.0	0.368    /
    104 'IEEET1' 1    0.06	20	0.01	5.0	-6.0	1.0	0.67	0.1	1.0	0.0	3.0    0.09	4.0	0.368    /
    105 'IEEET1' 1    0.06	20	0.01	5.0	-6.0	1.0	0.67	0.1	1.0	0.0	3.0    0.09	4.0	0.368    /
    107 'IEEET1' 1    0.06	20	0.01	5.0	-6.0	1.0	0.67	0.1	1.0	0.0	3.0    0.09	4.0	0.368    /
    110 'IEEET1' 1    0.06	20	0.01	5.0	-6.0	1.0	0.67	0.1	1.0	0.0	3.0    0.09	4.0	0.368    /
    111 'IEEET1' 1    0.06	20	0.01	5.0	-6.0	1.0	0.67	0.1	1.0	0.0	3.0    0.09	4.0	0.368    /
    112 'IEEET1' 1    0.06	20	0.01	5.0	-6.0	1.0	0.67	0.1	1.0	0.0	3.0    0.09	4.0	0.368    /
    113 'IEEET1' 1    0.06	20	0.01	5.0	-6.0	1.0	0.67	0.1	1.0	0.0	3.0    0.09	4.0	0.368    /
    116 'IEEET1' 1    0.06	20	0.01	5.0	-6.0	1.0	0.67	0.1	1.0	0.0	3.0    0.09	4.0	0.368    /

     10 'TGOV1'  1    0.04	0.4	1.05	0.0	  1.5	5.0	0.0	/
     12 'TGOV1'  1    0.04	0.4	1.05	0.0	  1.5	5.0	0.0	/
     25 'TGOV1'  1    0.04	0.4	1.05	0.0	  1.5	5.0	0.0	/
     26 'TGOV1'  1    0.04	0.4	1.05	0.0	  1.5	5.0	0.0	/
     31 'TGOV1'  1    0.04	0.4	1.05	0.0	  1.5	5.0	0.0	/
     46 'TGOV1'  1    0.04	0.4	1.05	0.0	  1.5	5.0	0.0	/
     49 'TGOV1'  1    0.04	0.4	1.05	0.0	  1.5	5.0	0.0	/
     54 'TGOV1'  1    0.04	0.4	1.05	0.0	  1.5	5.0	0.0	/
     59 'TGOV1'  1    0.04	0.4	1.05	0.0	  1.5	5.0	0.0	/
     61 'TGOV1'  1    0.04	0.4	1.05	0.0	  1.5	5.0	0.0	/
     65 'TGOV1'  1    0.04	0.4	1.05	0.0	  1.5	5.0	0.0	/
     66 'TGOV1'  1    0.04	0.4	1.05	0.0	  1.5	5.0	0.0	/
     69 'TGOV1'  1    0.04	0.4	1.05	0.0	  1.5	5.0	0.0	/
     80 'TGOV1'  1    0.04	0.4	1.05	0.0	  1.5	5.0	0.0	/
     87 'TGOV1'  1    0.04	0.4	1.05	0.0	  1.5	5.0	0.0	/
     89 'TGOV1'  1    0.04	0.4	1.05	0.0	  1.5	5.0	0.0	/
    100 'TGOV1'  1    0.04	0.4	1.05	0.0	  1.5	5.0	0.0	/
    103 'TGOV1'  1    0.04	0.4	1.05	0.0	  1.5	5.0	0.0	/
    111 'TGOV1'  1    0.04	0.4	1.05	0.0	  1.5	5.0	0.0	/
    113 'TGOV1'  1    0.04	0.4	1.05	0.0	  1.5	5.0	0.0	/

 10,'PSS2A',1, 1,0,3,0,5,1,  2,2,0.02,2,4,2,0.25 ,1,0.5,0.1,30,0.15,0.03,0.15,0.03,0.1,-0.1,/
 12,'PSS2A',1, 1,0,3,0,5,1,  2,2,0.02,2,4,2,0.25 ,1,0.5,0.1,30,0.15,0.03,0.15,0.03,0.1,-0.1,/
 25,'PSS2A',1, 1,0,3,0,5,1,  2,2,0.02,2,4,2,0.4  ,1,0.5,0.1,30,0.15,0.03,0.15,0.03,0.1,-0.1,/
 26,'PSS2A',1, 1,0,3,0,5,1,  2,2,0.02,2,4,2,0.2  ,1,0.5,0.1,30,0.15,0.03,0.15,0.03,0.1,-0.1,/
 31,'PSS2A',1, 1,0,3,0,5,1,  2,2,0.02,2,4,2,0.333,1,0.5,0.1,30,0.15,0.03,0.15,0.03,0.1,-0.1,/
 46,'PSS2A',1, 1,0,3,0,5,1,  2,2,0.02,2,4,2,0.333,1,0.5,0.1,30,0.15,0.03,0.15,0.03,0.1,-0.1,/
 49,'PSS2A',1, 1,0,3,0,5,1,  2,2,0.02,2,4,2,0.333,1,0.5,0.1,30,0.15,0.03,0.15,0.03,0.1,-0.1,/
 54,'PSS2A',1, 1,0,3,0,5,1,  2,2,0.02,2,4,2,0.333,1,0.5,0.1,30,0.15,0.03,0.15,0.03,0.1,-0.1,/
 59,'PSS2A',1, 1,0,3,0,5,1,  2,2,0.02,2,4,2,0.333,1,0.5,0.1,30,0.15,0.03,0.15,0.03,0.1,-0.1,/
 61,'PSS2A',1, 1,0,3,0,5,1,  2,2,0.02,2,4,2,0.333,1,0.5,0.1,30,0.15,0.03,0.15,0.03,0.1,-0.1,/
 69,'PSS2A',1, 1,0,3,0,5,1,  2,2,0.02,2,4,2,0.333,1,0.5,0.1,30,0.15,0.03,0.15,0.03,0.1,-0.1,/
 80,'PSS2A',1, 1,0,3,0,5,1,  2,2,0.02,2,4,2,0.333,1,0.5,0.1,30,0.15,0.03,0.15,0.03,0.1,-0.1,/
 87,'PSS2A',1, 1,0,3,0,5,1,  2,2,0.02,2,4,2,0.333,1,0.5,0.1,30,0.15,0.03,0.15,0.03,0.1,-0.1,/
 89,'PSS2A',1, 1,0,3,0,5,1,  2,2,0.02,2,4,2,0.333,1,0.5,0.1,30,0.15,0.03,0.15,0.03,0.1,-0.1,/
100,'PSS2A',1, 1,0,3,0,5,1,  2,2,0.02,2,4,2,0.333,1,0.5,0.1,30,0.15,0.03,0.15,0.03,0.1,-0.1,/
103,'PSS2A',1, 1,0,3,0,5,1,  2,2,0.02,2,4,2,0.333,1,0.5,0.1,30,0.15,0.03,0.15,0.03,0.1,-0.1,/
111,'PSS2A',1, 1,0,3,0,5,1,  2,2,0.02,2,4,2,0.333,1,0.5,0.1,30,0.15,0.03,0.15,0.03,0.1,-0.1,/
113,'PSS2A',1, 1,0,3,0,5,1,  2,2,0.02,2,4,2,0.333,1,0.5,0.1,30,0.15,0.03,0.15,0.03,0.1,-0.1,/
