// Nordic44_BC.dyr
3000,'GENROU',1,5.0,0.05,1.0,0.05,5.97,0.0,2.22,2.13,0.36,0.468,0.225,0.16875,0.1089,0.37795,/
3000,'STAB2A',1,1.0,2.0,0.0,2.0,0.55,1.0,0.01,0.03,/
3000,'IEEET2',1,0.0,729.0,0.04,5.32,-4.05,1.0,0.44,0.0667,2.0,0.44,6.5,0.054,8.0,0.202,/
3000,'IEESGO',1,0.01,0.0,0.15,0.3,8.0,0.4,0.0,0.7,0.43,1.0,0.0,/
3000,'GENROU',2,5.0,0.05,1.0,0.05,5.97,0.0,2.22,2.13,0.36,0.468,0.225,0.16875,0.1089,0.37795,/
3000,'STAB2A',2,1.0,2.0,0.0,2.0,0.55,1.0,0.01,0.03,/
3000,'IEEET2',2,0.0,729.0,0.04,5.32,-4.05,1.0,0.44,0.0667,2.0,0.44,6.5,0.054,8.0,0.202,/
3000,'IEESGO',2,0.01,0.0,0.15,0.3,8.0,0.4,0.0,0.7,0.43,1.0,0.0,/
3000,'GENROU',3,5.0,0.05,1.0,0.05,5.97,0.0,2.22,2.13,0.36,0.468,0.225,0.16875,0.1089,0.37795,/
3000,'STAB2A',3,1.0,2.0,0.0,2.0,0.55,1.0,0.01,0.03,/
3000,'IEEET2',3,0.0,729.0,0.04,5.32,-4.05,1.0,0.44,0.0667,2.0,0.44,6.5,0.054,8.0,0.202,/
3000,'IEESGO',3,0.01,0.0,0.15,0.3,8.0,0.4,0.0,0.7,0.43,1.0,0.0,/
3115,'GENSAL',1,7.57,0.045,0.1,4.741,0.0,0.946,0.565,0.29,0.23,0.11077,0.10239,0.2742,/
3115,'STAB2A',1,1.0,4.5,0.87,2.0,0.087,1.0,0.01,0.04,/
3115,'SCRX',1,0.25385,13.0,31.0,0.05,0.0,4.0,0.0,0.0,/
3115,'HYGOV',1,0.06,0.4,5.0,0.05,0.2,0.1,1.0,0.0,1.0,1.0577,0.5,0.1,/
3115,'GENSAL',2,7.57,0.045,0.1,4.741,0.0,0.946,0.565,0.29,0.23,0.11077,0.10239,0.2742,/
3115,'STAB2A',2,1.0,4.5,0.87,2.0,0.087,1.0,0.01,0.04,/
3115,'SCRX',2,0.25385,13.0,31.0,0.05,0.0,4.0,0.0,0.0,/
3115,'HYGOV',2,0.06,0.4,5.0,0.05,0.2,0.1,1.0,0.0,1.0,1.0577,0.5,0.1,/
3115,'GENSAL',3,7.57,0.045,0.1,4.741,0.0,0.946,0.565,0.29,0.23,0.11077,0.10239,0.2742,/
3115,'STAB2A',3,1.0,4.5,0.87,2.0,0.087,1.0,0.01,0.04,/
3115,'SCRX',3,0.25385,13.0,31.0,0.05,0.0,4.0,0.0,0.0,/
3115,'HYGOV',3,0.06,0.4,5.0,0.05,0.2,0.1,1.0,0.0,1.0,1.0577,0.5,0.1,/
3115,'GENSAL',4,7.57,0.045,0.1,4.741,0.0,0.946,0.565,0.29,0.23,0.11077,0.10239,0.2742,/
3115,'STAB2A',4,1.0,4.5,0.87,2.0,0.087,1.0,0.01,0.04,/
3115,'SCRX',4,0.25385,13.0,31.0,0.05,0.0,4.0,0.0,0.0,/
3115,'HYGOV',4,0.06,0.4,5.0,0.05,0.2,0.1,1.0,0.0,1.0,1.0577,0.5,0.1,/
3115,'GENSAL',5,7.57,0.045,0.1,4.741,0.0,0.946,0.565,0.29,0.23,0.1108,0.1024,0.2742,/
3115,'STAB2A',5,1.0,4.5,0.87,2.0,0.087,1.0,0.01,0.04,/
3115,'SCRX',5,0.2539,13.0,31.0,0.05,0.0,4.0,0.0,0.0,/
3115,'HYGOV',5,0.06,0.4,5.0,0.05,0.2,0.1,1.0,0.0,1.0,1.0577,0.5,0.1,/
3245,'GENSAL',1,5.0,0.06,0.1,3.3,0.0,0.75,0.5,0.25,0.15385,0.11538,0.10239,0.2742,/
3245,'SCRX',1,0.25385,13.0,31.0,0.05,0.0,4.0,0.0,0.0,/
3245,'HYGOV',1,0.06,0.4,5.0,0.05,0.2,0.1,1.0,0.0,1.0,1.01,0.5,0.1,/
3249,'GENSAL',1,10.13,0.06,0.1,4.543,0.0,1.036,0.63,0.28,0.21,0.11538,0.10239,0.2742,/
3249,'SCRX',1,0.25385,13.0,31.0,0.05,0.0,4.0,0.0,0.0,/
3249,'HYGOV',1,0.06,0.4,5.0,0.05,0.2,0.1,1.0,0.0,1.0,1.1,0.5,0.1,/
3249,'GENSAL',2,10.13,0.06,0.1,4.543,0.0,1.036,0.63,0.28,0.21,0.11538,0.10239,0.2742,/
3249,'SCRX',2,0.25385,13.0,31.0,0.05,0.0,4.0,0.0,0.0,/
3249,'HYGOV',2,0.06,0.4,5.0,0.05,0.2,0.1,1.0,0.0,1.0,1.1,0.5,0.1,/
3249,'GENSAL',3,10.13,0.06,0.1,4.543,0.0,1.036,0.63,0.28,0.21,0.11538,0.10239,0.2742,/
3249,'SCRX',3,0.25385,13.0,31.0,0.05,0.0,4.0,0.0,0.0,/
3249,'HYGOV',3,0.06,0.4,5.0,0.05,0.2,0.1,1.0,0.0,1.0,1.1,0.5,0.1,/
3249,'GENSAL',4,10.13,0.06,0.1,4.543,0.0,1.036,0.63,0.28,0.21,0.11538,0.10239,0.2742,/
3249,'SCRX',4,0.25385,13.0,31.0,0.05,0.0,4.0,0.0,0.0,/
3249,'HYGOV',4,0.06,0.4,5.0,0.05,0.2,0.1,1.0,0.0,1.0,1.1,0.5,0.1,/
3249,'GENSAL',5,10.13,0.06,0.1,4.543,0.0,1.036,0.63,0.28,0.21,0.11538,0.10239,0.2742,/
3249,'SCRX',5,0.25385,13.0,31.0,0.05,0.0,4.0,0.0,0.0,/
3249,'HYGOV',5,0.06,0.4,5.0,0.05,0.2,0.1,1.0,0.0,1.0,1.1,0.5,0.1,/
3249,'GENSAL',6,10.13,0.06,0.1,4.543,0.0,1.036,0.63,0.28,0.21,0.11538,0.10239,0.2742,/
3249,'SCRX',6,0.25385,13.0,31.0,0.05,0.0,4.0,0.0,0.0,/
3249,'HYGOV',6,0.06,0.4,5.0,0.05,0.2,0.1,1.0,0.0,1.0,1.1,0.5,0.1,/
3249,'GENSAL',7,10.13,0.06,0.1,4.543,0.0,1.036,0.63,0.28,0.21,0.11538,0.10239,0.2742,/
3249,'SCRX',7,0.25385,13.0,31.0,0.05,0.0,4.0,0.0,0.0,/
3249,'HYGOV',7,0.06,0.4,5.0,0.05,0.2,0.1,1.0,0.0,1.0,1.1,0.5,0.1,/
3249,'GENSAL',8,10.13,0.06,0.1,4.543,0.0,1.036,0.63,0.28,0.21,0.11538,0.10239,0.2742,/
3249,'SCRX',8,0.25385,13.0,31.0,0.05,0.0,4.0,0.0,0.0,/
3249,'HYGOV',8,0.06,0.4,5.0,0.05,0.2,0.1,1.0,0.0,1.0,1.1,0.5,0.1,/
3300,'GENROU',1,10.8,0.05,1.0,0.05,6.0,0.0,2.42,2.0,0.23,0.4108,0.16,0.14812,0.1089,0.37795,/
3300,'STAB2A',1,1.0,4.5,0.0,2.0,0.55,1.0,0.01,0.03,/
3300,'SCRX',1,0.0,0.04,10.0,0.04,0.0,5.0,0.0,0.0,/
3300,'IEESGO',1,0.01,0.0,0.15,0.3,8.0,0.4,0.0,0.7,0.43,1.0,0.0,/
3300,'GENROU',2,10.8,0.05,1.0,0.05,6.0,0.0,2.42,2.0,0.23,0.4108,0.16,0.14812,0.1089,0.37795,/
3300,'STAB2A',2,1.0,4.5,0.0,2.0,0.55,1.0,0.01,0.03,/
3300,'SCRX',2,0.0,0.04,10.0,0.04,0.0,5.0,0.0,0.0,/
3300,'IEESGO',2,0.01,0.0,0.15,0.3,8.0,0.4,0.0,0.7,0.43,1.0,0.0,/
3300,'GENROU',3,10.8,0.05,1.0,0.05,6.0,0.0,2.42,2.0,0.23,0.4108,0.16,0.14812,0.1089,0.37795,/
3300,'STAB2A',3,1.0,4.5,0.0,2.0,0.55,1.0,0.01,0.03,/
3300,'SCRX',3,0.0,0.04,10.0,0.04,0.0,5.0,0.0,0.0,/
3300,'IEESGO',3,0.01,0.0,0.15,0.3,8.0,0.4,0.0,0.7,0.43,1.0,0.0,/
3300,'GENROU',4,10.8,0.05,1.0,0.05,6.0,0.0,2.42,2.0,0.23,0.4108,0.16,0.14812,0.1089,0.37795,/
3300,'STAB2A',4,1.0,4.5,0.0,2.0,0.55,1.0,0.01,0.03,/
3300,'SCRX',4,0.0,0.04,10.0,0.04,0.0,5.0,0.0,0.0,/
3300,'IEESGO',4,0.01,0.0,0.15,0.3,8.0,0.4,0.0,0.7,0.43,1.0,0.0,/
3300,'GENROU',5,10.8,0.05,1.0,0.05,6.0,0.0,2.42,2.0,0.23,0.4108,0.16,0.14812,0.1089,0.37795,/
3300,'STAB2A',5,1.0,4.5,0.0,2.0,0.55,1.0,0.01,0.03,/
3300,'SCRX',5,0.0,0.04,10.0,0.04,0.0,5.0,0.0,0.0,/
3300,'IEESGO',5,0.01,0.0,0.15,0.3,8.0,0.4,0.0,0.7,0.43,1.0,0.0,/
3300,'GENROU',6,10.8,0.05,1.0,0.05,6.0,0.0,2.42,2.0,0.23,0.4108,0.16,0.1481,0.1089,0.378,/
3300,'STAB2A',6,1.0,4.5,0.0,2.0,0.55,1.0,0.01,0.03,/
3300,'SCRX',6,0.0,0.04,10.0,0.04,0.0,5.0,0.0,0.0,/
3300,'IEESGO',6,0.01,0.0,0.15,0.3,8.0,0.4,0.0,0.7,0.43,1.0,0.0,/
3359,'GENROU',1,4.75,0.05,1.0,0.05,4.82,0.0,2.13,2.03,0.31,0.403,0.1937,0.14531,0.1089,0.37795,/
3359,'STAB2A',1,1.0,4.5,0.0,2.0,0.68,1.0,0.01,0.03,/
3359,'SCRX',1,0.2,10.0,165.0,0.04,0.0,5.0,0.0,0.0,/
3359,'IEESGO',1,0.01,0.0,0.15,0.3,8.0,0.4,0.0,0.7,0.43,1.0,0.0,/
3359,'GENROU',2,4.75,0.05,1.0,0.05,4.82,0.0,2.13,2.03,0.31,0.403,0.1937,0.14531,0.1089,0.37795,/
3359,'STAB2A',2,1.0,4.5,0.0,2.0,0.68,1.0,0.01,0.03,/
3359,'SCRX',2,0.2,10.0,165.0,0.04,0.0,5.0,0.0,0.0,/
3359,'IEESGO',2,0.01,0.0,0.15,0.3,8.0,0.4,0.0,0.7,0.43,1.0,0.0,/
3359,'GENROU',3,4.75,0.05,1.0,0.05,4.82,0.0,2.13,2.03,0.31,0.403,0.1937,0.14531,0.1089,0.37795,/
3359,'STAB2A',3,1.0,4.5,0.0,2.0,0.68,1.0,0.01,0.03,/
3359,'SCRX',3,0.2,10.0,165.0,0.04,0.0,5.0,0.0,0.0,/
3359,'IEESGO',3,0.01,0.0,0.15,0.3,8.0,0.4,0.0,0.7,0.43,1.0,0.0,/
3359,'GENROU',4,4.75,0.05,1.0,0.05,4.82,0.0,2.13,2.03,0.31,0.403,0.1937,0.14531,0.1089,0.37795,/
3359,'STAB2A',4,1.0,4.5,0.0,2.0,0.68,1.0,0.01,0.03,/
3359,'SCRX',4,0.2,10.0,165.0,0.04,0.0,5.0,0.0,0.0,/
3359,'IEESGO',4,0.01,0.0,0.15,0.3,8.0,0.4,0.0,0.7,0.43,1.0,0.0,/
3359,'GENROU',5,4.75,0.05,1.0,0.05,4.82,0.0,2.13,2.03,0.31,0.403,0.1937,0.14531,0.1089,0.37795,/
3359,'STAB2A',5,1.0,4.5,0.0,2.0,0.68,1.0,0.01,0.03,/
3359,'SCRX',5,0.2,10.0,165.0,0.04,0.0,5.0,0.0,0.0,/
3359,'IEESGO',5,0.01,0.0,0.15,0.3,8.0,0.4,0.0,0.7,0.43,1.0,0.0,/
3359,'GENROU',6,4.75,0.05,1.0,0.05,4.82,0.0,2.13,2.03,0.31,0.403,0.1937,0.14531,0.1089,0.37795,/
3359,'STAB2A',6,1.0,4.5,0.0,2.0,0.68,1.0,0.01,0.03,/
3359,'SCRX',6,0.2,10.0,165.0,0.04,0.0,5.0,0.0,0.0,/
3359,'IEESGO',6,0.01,0.0,0.15,0.3,8.0,0.4,0.0,0.7,0.43,1.0,0.0,/
5100,'GENSAL',1,4.9629,0.05,0.15,3.9871,0.0,1.1332,0.68315,0.24302,0.15135,0.13405,0.1,0.3,/
5100,'SEXS',1,0.05,100.0,200.0,0.5,0.0,4.0,/
5100,'HYGOV',1,0.06,0.4,5.0,0.05,0.2,0.2,1.0,0.0,1.0,1.1,0.5,0.1,/
5100,'GENSAL',2,4.9629,0.05,0.15,3.9871,0.0,1.1332,0.6832,0.243,0.1514,0.1341,0.1,0.3,/
5100,'SEXS',2,0.05,100.0,200.0,0.5,0.0,4.0,/
5100,'HYGOV',2,0.06,0.4,5.0,0.05,0.2,0.2,1.0,0.0,1.0,1.1,0.5,0.1,/
5300,'GENSAL',1,6.4,0.05,0.15,3.5,0.0,1.14,0.84,0.34,0.26,0.2,0.1,0.3,/
5300,'STAB2A',1,1.0,4.5,0.0,2.0,0.55,1.0,0.01,0.03,/
5300,'SCRX',1,0.25385,13.0,61.0,0.05,0.0,4.0,0.0,0.0,/
5300,'HYGOV',1,0.06,0.4,5.0,0.05,0.2,0.2,1.0,0.0,1.0,1.1,0.5,0.1,/
5300,'GENSAL',2,6.4,0.05,0.15,3.5,0.0,1.14,0.84,0.34,0.26,0.2,0.1,0.3,/
5300,'STAB2A',2,1.0,4.5,0.0,2.0,0.55,1.0,0.01,0.03,/
5300,'SCRX',2,0.25385,13.0,61.0,0.05,0.0,4.0,0.0,0.0,/
5300,'HYGOV',2,0.06,0.4,5.0,0.05,0.2,0.2,1.0,0.0,1.0,1.1,0.5,0.1,/
5300,'GENSAL',3,6.4,0.05,0.15,3.5,0.0,1.14,0.84,0.34,0.26,0.2,0.1,0.3,/
5300,'STAB2A',3,1.0,4.5,0.0,2.0,0.55,1.0,0.01,0.03,/
5300,'SCRX',3,0.25385,13.0,61.0,0.05,0.0,4.0,0.0,0.0,/
5300,'HYGOV',3,0.06,0.4,5.0,0.05,0.2,0.2,1.0,0.0,1.0,1.1,0.5,0.1,/
5300,'GENSAL',4,6.4,0.05,0.15,3.5,0.0,1.14,0.84,0.34,0.26,0.2,0.1,0.3,/
5300,'STAB2A',4,1.0,4.5,0.0,2.0,0.55,1.0,0.01,0.03,/
5300,'SCRX',4,0.25385,13.0,61.0,0.05,0.0,4.0,0.0,0.0,/
5300,'HYGOV',4,0.06,0.4,5.0,0.05,0.2,0.2,1.0,0.0,1.0,1.1,0.5,0.1,/
5300,'GENSAL',5,6.4,0.05,0.15,3.5,0.0,1.14,0.84,0.34,0.26,0.2,0.1,0.3,/
5300,'STAB2A',5,1.0,4.5,0.0,2.0,0.55,1.0,0.01,0.03,/
5300,'SCRX',5,0.25385,13.0,61.0,0.05,0.0,4.0,0.0,0.0,/
5300,'HYGOV',5,0.06,0.4,5.0,0.05,0.2,0.2,1.0,0.0,1.0,1.1,0.5,0.1,/
5300,'GENSAL',6,6.4,0.05,0.15,3.5,0.0,1.14,0.84,0.34,0.26,0.2,0.1,0.3,/
5300,'STAB2A',6,1.0,4.5,0.0,2.0,0.55,1.0,0.01,0.03,/
5300,'SCRX',6,0.25385,13.0,61.0,0.05,0.0,4.0,0.0,0.0,/
5300,'HYGOV',6,0.06,0.4,5.0,0.05,0.2,0.2,1.0,0.0,1.0,1.1,0.5,0.1,/
5400,'GENSAL',1,6.5,0.05,0.15,4.1,0.0,1.02,0.63,0.25,0.16,0.13,0.1,0.3,/
5400,'SEXS',1,0.05,100.0,200.0,0.5,0.0,4.0,/
5400,'HYGOV',1,0.06,0.4,5.0,0.05,0.2,0.2,1.0,0.0,1.0,1.1,0.5,0.1,/
5400,'GENSAL',2,6.5,0.05,0.15,4.1,0.0,1.02,0.63,0.25,0.16,0.13,0.1,0.3,/
5400,'SEXS',2,0.05,100.0,200.0,0.5,0.0,4.0,/
5400,'HYGOV',2,0.06,0.4,5.0,0.05,0.2,0.2,1.0,0.0,1.0,1.1,0.5,0.1,/
5500,'GENSAL',1,7.198,0.05,0.15,3.0,0.0,1.2364,0.65567,0.37415,0.22825,0.16194,0.1,0.3,/
5500,'SEXS',1,0.05,100.0,200.0,0.5,0.0,4.0,/
5500,'HYGOV',1,0.06,0.4,5.0,0.05,0.2,0.2,1.0,0.0,1.0,1.1,0.5,0.1,/
5500,'GENSAL',2,7.198,0.05,0.15,3.0,0.0,1.2364,0.6557,0.3741,0.2283,0.1619,0.1,0.3,/
5500,'SEXS',2,0.05,100.0,200.0,0.5,0.0,4.0,/
5500,'HYGOV',2,0.06,0.4,5.0,0.05,0.2,0.2,1.0,0.0,1.0,1.1,0.5,0.1,/
5600,'GENSAL',1,7.85,0.05,0.15,3.5,0.0,1.0,0.51325,0.38,0.28,0.21,0.1,0.3,/
5600,'SCRX',1,0.25385,13.0,61.0,0.05,0.0,4.0,0.0,0.0,/
5600,'HYGOV',1,0.06,0.3,5.0,0.05,0.2,0.2,1.0,0.0,1.0,1.1,0.5,0.1,/
5600,'GENSAL',2,7.85,0.05,0.15,3.5,0.0,1.0,0.51325,0.38,0.28,0.21,0.1,0.3,/
5600,'SCRX',2,0.25385,13.0,61.0,0.05,0.0,4.0,0.0,0.0,/
5600,'HYGOV',2,0.06,0.3,5.0,0.05,0.2,0.2,1.0,0.0,1.0,1.1,0.5,0.1,/
5600,'GENSAL',3,7.85,0.05,0.15,3.5,0.0,1.0,0.51325,0.38,0.28,0.21,0.1,0.3,/
5600,'SCRX',3,0.25385,13.0,61.0,0.05,0.0,4.0,0.0,0.0,/
5600,'HYGOV',3,0.06,0.3,5.0,0.05,0.2,0.2,1.0,0.0,1.0,1.1,0.5,0.1,/
5600,'GENSAL',4,7.85,0.05,0.15,3.5,0.0,1.0,0.51325,0.38,0.28,0.21,0.1,0.3,/
5600,'SCRX',4,0.25385,13.0,61.0,0.05,0.0,4.0,0.0,0.0,/
5600,'HYGOV',4,0.06,0.3,5.0,0.05,0.2,0.2,1.0,0.0,1.0,1.1,0.5,0.1,/
6000,'GENSAL',1,9.7,0.05,0.15,3.5,0.0,1.28,0.94,0.37,0.28,0.2,0.1,0.3,/
6000,'SEXS',1,1.0,0.1,20.0,0.1,-4.0,4.0,/
6000,'HYGOV',1,0.06,0.3,5.0,0.05,0.2,0.2,1.0,0.0,1.0,1.1,0.5,0.1,/
6000,'GENSAL',2,9.7,0.05,0.15,3.5,0.0,1.28,0.94,0.37,0.28,0.2,0.1,0.3,/
6000,'SEXS',2,1.0,0.1,20.0,0.1,-4.0,4.0,/
6000,'HYGOV',2,0.06,0.3,5.0,0.05,0.2,0.2,1.0,0.0,1.0,1.1,0.5,0.1,/
6000,'GENSAL',3,9.7,0.05,0.15,3.5,0.0,1.28,0.94,0.37,0.28,0.2,0.1,0.3,/
6000,'SEXS',3,1.0,0.1,20.0,0.1,-4.0,4.0,/
6000,'HYGOV',3,0.06,0.3,5.0,0.05,0.2,0.2,1.0,0.0,1.0,1.1,0.5,0.1,/
6000,'GENSAL',4,9.7,0.05,0.15,3.5,0.0,1.28,0.94,0.37,0.28,0.2,0.1,0.3,/
6000,'SEXS',4,1.0,0.1,20.0,0.1,-4.0,4.0,/
6000,'HYGOV',4,0.06,0.3,5.0,0.05,0.2,0.2,1.0,0.0,1.0,1.1,0.5,0.1,/
6100,'GENSAL',1,9.9,0.05,0.15,3.0,0.0,1.2,0.73,0.37,0.18,0.15,0.1,0.3,/
6100,'STAB2A',1,1.0,4.5,0.0,2.0,0.55,1.0,0.01,0.03,/
6100,'SCRX',1,0.25385,13.0,61.0,0.05,0.0,4.0,0.0,0.0,/
6100,'HYGOV',1,0.06,0.4,5.0,0.05,0.2,0.2,1.0,0.0,1.0,1.1,0.5,0.1,/
6100,'GENSAL',2,9.9,0.05,0.15,3.0,0.0,1.2,0.73,0.37,0.18,0.15,0.1,0.3,/
6100,'STAB2A',2,1.0,4.5,0.0,2.0,0.55,1.0,0.01,0.03,/
6100,'SCRX',2,0.25385,13.0,61.0,0.05,0.0,4.0,0.0,0.0,/
6100,'HYGOV',2,0.06,0.4,5.0,0.05,0.2,0.2,1.0,0.0,1.0,1.1,0.5,0.1,/
6100,'GENSAL',3,9.9,0.05,0.15,3.0,0.0,1.2,0.73,0.37,0.18,0.15,0.1,0.3,/
6100,'STAB2A',3,1.0,4.5,0.0,2.0,0.55,1.0,0.01,0.03,/
6100,'SCRX',3,0.25385,13.0,61.0,0.05,0.0,4.0,0.0,0.0,/
6100,'HYGOV',3,0.06,0.4,5.0,0.05,0.2,0.2,1.0,0.0,1.0,1.1,0.5,0.1,/
6100,'GENSAL',4,9.9,0.05,0.15,3.0,0.0,1.2,0.73,0.37,0.18,0.15,0.1,0.3,/
6100,'STAB2A',4,1.0,4.5,0.0,2.0,0.55,1.0,0.01,0.03,/
6100,'SCRX',4,0.25385,13.0,61.0,0.05,0.0,4.0,0.0,0.0,/
6100,'HYGOV',4,0.06,0.4,5.0,0.05,0.2,0.2,1.0,0.0,1.0,1.1,0.5,0.1,/
6100,'GENSAL',5,9.9,0.05,0.15,3.0,0.0,1.2,0.73,0.37,0.18,0.15,0.1,0.3,/
6100,'STAB2A',5,1.0,4.5,0.0,2.0,0.55,1.0,0.01,0.03,/
6100,'SCRX',5,0.25385,13.0,61.0,0.05,0.0,4.0,0.0,0.0,/
6100,'HYGOV',5,0.06,0.4,5.0,0.05,0.2,0.2,1.0,0.0,1.0,1.1,0.5,0.1,/
6500,'GENSAL',1,5.4855,0.05,0.15,3.558,0.0,1.0679,0.642,0.23865,0.15802,0.13514,0.1,0.3,/
6500,'SEXS',1,0.05,100.0,200.0,0.5,0.0,4.0,/
6500,'HYGOV',1,0.06,0.4,5.0,0.05,0.2,0.2,1.0,0.0,1.0,1.1,0.5,0.1,/
6500,'GENSAL',2,5.4855,0.05,0.15,3.558,0.0,1.0679,0.642,0.23865,0.15802,0.13514,0.1,0.3,/
6500,'SEXS',2,0.05,100.0,200.0,0.5,0.0,4.0,/
6500,'HYGOV',2,0.06,0.4,5.0,0.05,0.2,0.2,1.0,0.0,1.0,1.1,0.5,0.1,/
6500,'GENSAL',3,5.4855,0.05,0.15,3.558,0.0,1.0679,0.642,0.23865,0.15802,0.13514,0.1,0.3,/
6500,'SEXS',3,0.05,100.0,200.0,0.5,0.0,4.0,/
6500,'HYGOV',3,0.06,0.4,5.0,0.05,0.2,0.2,1.0,0.0,1.0,1.1,0.5,0.1,/
6500,'GENSAL',4,5.4855,0.05,0.15,3.558,0.0,1.0679,0.642,0.23865,0.15802,0.13514,0.1,0.3,/
6500,'SEXS',4,0.05,100.0,200.0,0.5,0.0,4.0,/
6500,'HYGOV',4,0.06,0.4,5.0,0.05,0.2,0.2,1.0,0.0,1.0,1.1,0.5,0.1,/
6700,'GENSAL',1,5.24,0.05,0.15,3.592,0.0,1.1044,0.66186,0.25484,0.17062,0.14737,0.1,0.3,/
6700,'STAB2A',1,1.0,4.5,0.0,2.0,0.55,1.0,0.01,0.03,/
6700,'SCRX',1,0.25385,13.0,61.0,0.05,0.0,4.0,0.0,0.0,/
6700,'HYGOV',1,0.06,0.4,5.0,0.05,0.2,0.2,1.0,0.0,1.0,1.1,0.5,0.1,/
6700,'GENSAL',2,5.24,0.05,0.15,3.592,0.0,1.1044,0.66186,0.25484,0.17062,0.14737,0.1,0.3,/
6700,'STAB2A',2,1.0,4.5,0.0,2.0,0.55,1.0,0.01,0.03,/
6700,'SCRX',2,0.25385,13.0,61.0,0.05,0.0,4.0,0.0,0.0,/
6700,'HYGOV',2,0.06,0.4,5.0,0.05,0.2,0.2,1.0,0.0,1.0,1.1,0.5,0.1,/
6700,'GENSAL',3,5.24,0.05,0.15,3.592,0.0,1.1044,0.6619,0.2548,0.1706,0.1474,0.1,0.3,/
6700,'STAB2A',3,1.0,4.5,0.0,2.0,0.55,1.0,0.01,0.03,/
6700,'SCRX',3,0.25385,13.0,61.0,0.05,0.0,4.0,0.0,0.0,/
6700,'HYGOV',3,0.06,0.4,5.0,0.05,0.2,0.2,1.0,0.0,1.0,1.1,0.5,0.1,/
6700,'GENSAL',4,5.24,0.05,0.15,3.592,0.0,1.1044,0.6619,0.2548,0.1706,0.1474,0.1,0.3,/
6700,'STAB2A',4,1.0,4.5,0.0,2.0,0.55,1.0,0.01,0.03,/
6700,'SCRX',4,0.2539,13.0,61.0,0.05,0.0,4.0,0.0,0.0,/
6700,'HYGOV',4,0.06,0.4,5.0,0.05,0.2,0.2,1.0,0.0,1.0,1.1,0.5,0.1,/
7000,'GENROU',1,10.0,0.05,1.0,0.05,5.5,0.0,2.22,2.13,0.36,0.468,0.225,0.16875,0.1089,0.37795,/
7000,'STAB2A',1,1.0,1.0,0.0,2.0,0.55,1.0,0.01,0.03,/
7000,'IEEET2',1,0.0,800.0,0.04,5.32,-4.05,1.0,0.44,0.0667,2.0,0.44,6.5,0.054,8.0,0.202,/
7000,'IEESGO',1,0.01,0.0,0.15,0.3,8.0,0.4,0.0,0.7,0.43,1.0,0.0,/
7000,'GENROU',2,10.0,0.05,1.0,0.05,5.5,0.0,2.22,2.13,0.36,0.468,0.225,0.16875,0.1089,0.37795,/
7000,'STAB2A',2,1.0,1.0,0.0,2.0,0.55,1.0,0.01,0.03,/
7000,'IEEET2',2,0.0,800.0,0.04,5.32,-4.05,1.0,0.44,0.0667,2.0,0.44,6.5,0.054,8.0,0.202,/
7000,'IEESGO',2,0.01,0.0,0.15,0.3,8.0,0.4,0.0,0.7,0.43,1.0,0.0,/
7000,'GENROU',3,10.0,0.05,1.0,0.05,5.5,0.0,2.22,2.13,0.36,0.468,0.225,0.16875,0.1089,0.37795,/
7000,'STAB2A',3,1.0,1.0,0.0,2.0,0.55,1.0,0.01,0.03,/
7000,'IEEET2',3,0.0,800.0,0.04,5.32,-4.05,1.0,0.44,0.0667,2.0,0.44,6.5,0.054,8.0,0.202,/
7000,'IEESGO',3,0.01,0.0,0.15,0.3,8.0,0.4,0.0,0.7,0.43,1.0,0.0,/
7000,'GENROU',4,10.0,0.05,1.0,0.05,5.5,0.0,2.22,2.13,0.36,0.468,0.225,0.16875,0.1089,0.37795,/
7000,'STAB2A',4,1.0,1.0,0.0,2.0,0.55,1.0,0.01,0.03,/
7000,'IEEET2',4,0.0,800.0,0.04,5.32,-4.05,1.0,0.44,0.0667,2.0,0.44,6.5,0.054,8.0,0.202,/
7000,'IEESGO',4,0.01,0.0,0.15,0.3,8.0,0.4,0.0,0.7,0.43,1.0,0.0,/
7000,'GENROU',5,10.0,0.05,1.0,0.05,5.5,0.0,2.22,2.13,0.36,0.468,0.225,0.16875,0.1089,0.37795,/
7000,'STAB2A',5,1.0,1.0,0.0,2.0,0.55,1.0,0.01,0.03,/
7000,'IEEET2',5,0.0,800.0,0.04,5.32,-4.05,1.0,0.44,0.0667,2.0,0.44,6.5,0.054,8.0,0.202,/
7000,'IEESGO',5,0.01,0.0,0.15,0.3,8.0,0.4,0.0,0.7,0.43,1.0,0.0,/
7000,'GENROU',6,10.0,0.05,1.0,0.05,5.5,0.0,2.22,2.13,0.36,0.468,0.225,0.16875,0.1089,0.37795,/
7000,'STAB2A',6,1.0,1.0,0.0,2.0,0.55,1.0,0.01,0.03,/
7000,'IEEET2',6,0.0,800.0,0.04,5.32,-4.05,1.0,0.44,0.0667,2.0,0.44,6.5,0.054,8.0,0.202,/
7000,'IEESGO',6,0.01,0.0,0.15,0.3,8.0,0.4,0.0,0.7,0.43,1.0,0.0,/
7000,'GENROU',7,10.0,0.05,1.0,0.05,5.5,0.0,2.22,2.13,0.36,0.468,0.225,0.16875,0.1089,0.37795,/
7000,'STAB2A',7,1.0,1.0,0.0,2.0,0.55,1.0,0.01,0.03,/
7000,'IEEET2',7,0.0,800.0,0.04,5.32,-4.05,1.0,0.44,0.0667,2.0,0.44,6.5,0.054,8.0,0.202,/
7000,'IEESGO',7,0.01,0.0,0.15,0.3,8.0,0.4,0.0,0.7,0.43,1.0,0.0,/
7000,'GENROU',8,10.0,0.05,1.0,0.05,5.5,0.0,2.22,2.13,0.36,0.468,0.225,0.16875,0.1089,0.37795,/
7000,'STAB2A',8,1.0,1.0,0.0,2.0,0.55,1.0,0.01,0.03,/
7000,'IEEET2',8,0.0,800.0,0.04,5.32,-4.05,1.0,0.44,0.0667,2.0,0.44,6.5,0.054,8.0,0.202,/
7000,'IEESGO',8,0.01,0.0,0.15,0.3,8.0,0.4,0.0,0.7,0.43,1.0,0.0,/
7000,'GENROU',9,10.0,0.05,1.0,0.05,5.5,0.0,2.22,2.13,0.36,0.468,0.225,0.16875,0.1089,0.37795,/
7000,'STAB2A',9,1.0,1.0,0.0,2.0,0.55,1.0,0.01,0.03,/
7000,'IEEET2',9,0.0,800.0,0.04,5.32,-4.05,1.0,0.44,0.0667,2.0,0.44,6.5,0.054,8.0,0.202,/
7000,'IEESGO',9,0.01,0.0,0.15,0.3,8.0,0.4,0.0,0.7,0.43,1.0,0.0,/
7100,'GENSAL',1,5.0,0.06,0.1,3.2,0.0,0.75,0.5,0.25,0.15385,0.11538,0.10239,0.2742,/
7100,'STAB2A',1,1.0,4.5,0.0,2.0,0.55,1.0,0.01,0.03,/
7100,'SCRX',1,0.25385,13.0,61.0,0.05,0.0,4.0,0.0,0.0,/
7100,'HYGOV',1,0.06,0.4,5.0,0.05,0.2,0.1,1.0,0.0,1.0,1.01,0.5,0.1,/
7100,'GENSAL',2,5.0,0.06,0.1,3.2,0.0,0.75,0.5,0.25,0.15385,0.11538,0.10239,0.2742,/
7100,'STAB2A',2,1.0,4.5,0.0,2.0,0.55,1.0,0.01,0.03,/
7100,'SCRX',2,0.25385,13.0,61.0,0.05,0.0,4.0,0.0,0.0,/
7100,'HYGOV',2,0.06,0.4,5.0,0.05,0.2,0.1,1.0,0.0,1.0,1.01,0.5,0.1,/
7100,'GENSAL',3,5.0,0.06,0.1,3.2,0.0,0.75,0.5,0.25,0.15385,0.11538,0.10239,0.2742,/
7100,'STAB2A',3,1.0,4.5,0.0,2.0,0.55,1.0,0.01,0.03,/
7100,'SCRX',3,0.25385,13.0,61.0,0.05,0.0,4.0,0.0,0.0,/
7100,'HYGOV',3,0.06,0.4,5.0,0.05,0.2,0.1,1.0,0.0,1.0,1.01,0.5,0.1,/
8500,'GENROU',1,10.0,0.05,1.0,0.05,7.0,0.0,2.42,2.0,0.23,0.4108,0.17062,0.14812,0.1089,0.37795,/
8500,'STAB2A',1,1.0,4.5,0.0,2.0,0.55,1.0,0.01,0.03,/
8500,'SCRX',1,0.0,0.04,10.0,0.04,0.0,5.0,0.0,0.0,/
8500,'IEESGO',1,0.01,0.0,0.15,0.3,8.0,0.4,0.0,0.7,0.43,1.0,0.0,/
8500,'GENROU',2,10.0,0.05,1.0,0.05,7.0,0.0,2.42,2.0,0.23,0.4108,0.17062,0.14812,0.1089,0.37795,/
8500,'STAB2A',2,1.0,4.5,0.0,2.0,0.55,1.0,0.01,0.03,/
8500,'SCRX',2,0.0,0.04,10.0,0.04,0.0,5.0,0.0,0.0,/
8500,'IEESGO',2,0.01,0.0,0.15,0.3,8.0,0.4,0.0,0.7,0.43,1.0,0.0,/
8500,'GENROU',3,10.0,0.05,1.0,0.05,7.0,0.0,2.42,2.0,0.23,0.4108,0.17062,0.14812,0.1089,0.37795,/
8500,'STAB2A',3,1.0,4.5,0.0,2.0,0.55,1.0,0.01,0.03,/
8500,'SCRX',3,0.0,0.04,10.0,0.04,0.0,5.0,0.0,0.0,/
8500,'IEESGO',3,0.01,0.0,0.15,0.3,8.0,0.4,0.0,0.7,0.43,1.0,0.0,/
8500,'GENROU',4,10.0,0.05,1.0,0.05,7.0,0.0,2.42,2.0,0.23,0.4108,0.17062,0.14812,0.1089,0.37795,/
8500,'STAB2A',4,1.0,4.5,0.0,2.0,0.55,1.0,0.01,0.03,/
8500,'SCRX',4,0.0,0.04,10.0,0.04,0.0,5.0,0.0,0.0,/
8500,'IEESGO',4,0.01,0.0,0.15,0.3,8.0,0.4,0.0,0.7,0.43,1.0,0.0,/
8500,'GENROU',5,10.0,0.05,1.0,0.05,7.0,0.0,2.42,2.0,0.23,0.4108,0.17062,0.14812,0.1089,0.37795,/
8500,'STAB2A',5,1.0,4.5,0.0,2.0,0.55,1.0,0.01,0.03,/
8500,'SCRX',5,0.0,0.04,10.0,0.04,0.0,5.0,0.0,0.0,/
8500,'IEESGO',5,0.01,0.0,0.15,0.3,8.0,0.4,0.0,0.7,0.43,1.0,0.0,/
8500,'GENROU',6,10.0,0.05,1.0,0.05,7.0,0.0,2.42,2.0,0.23,0.4108,0.17062,0.14812,0.1089,0.37795,/
8500,'STAB2A',6,1.0,4.5,0.0,2.0,0.55,1.0,0.01,0.03,/
8500,'SCRX',6,0.0,0.04,10.0,0.04,0.0,5.0,0.0,0.0,/
8500,'IEESGO',6,0.01,0.0,0.15,0.3,8.0,0.4,0.0,0.7,0.43,1.0,0.0,/
